*Heading
** Job name: s1c1 Model name: Model-2 
** Generated by: Abaqus/CAE Student Edition 2021
*Preprint, echo=NO, model=NO, history=NO, contact=NO
**
** PARTS
**
*Part, name=specimen
*Node
      1,   16.1611652,   16.1611652
      2,   7.07106781,   7.07106781
      3,          10.,           0.
      4,          25.,           0.
      5,          25.,         12.5
      6,  -7.07106781,  -7.07106781
      7,  -16.1611652,  -16.1611652
      8,        -12.5,         -25.
      9,           0.,         -25.
     10,           0.,         -10.
     11,  -16.1611652,   16.1611652
     12,  -7.07106781,   7.07106781
     13,           0.,          10.
     14,           0.,          25.
     15,        -12.5,          25.
     16,   7.07106781,  -7.07106781
     17,   16.1611652,  -16.1611652
     18,          25.,        -12.5
     19,         12.5,          25.
     20,         -25.,         12.5
** ... 650 like lines cut
*Element, type=CPS4
 1,  28,  29, 246, 238
 2,  29,  30, 247, 246
 3,  30,   1,  31, 247
 4, 238, 246, 248, 237
 5, 246, 247, 249, 248
 6, 247,  31,  32, 249
 7, 237, 248, 250, 236
 8, 248, 249, 251, 250
 9, 249,  32,  33, 251
10, 236, 250, 252, 235
11, 250, 251, 253, 252
12, 251,  33,  34, 253
13, 235, 252, 254, 234
14, 252, 253, 255, 254
15, 253,  34,  35, 255
16, 234, 254, 233, 231
17, 254, 255, 232, 233
18, 255,  35,  36, 232
19,  36,  37, 256, 232
20,  37,  38, 257, 256
** ... 570 like lines cut
*Element,  type=CPS4, elset=PHANTOM
1001,   28,   29,  246,  238
1002,   29,   30,  247,  246
1003,   30,    1,   31,  247
1004,  238,  246,  248,  237
1005,  246,  247,  249,  248
1006,  247,   31,   32,  249
1007,  237,  248,  250,  236
1008,  248,  249,  251,  250
1009,  249,   32,   33,  251
1010,  236,  250,  252,  235
1011,  250,  251,  253,  252
1012,  251,   33,   34,  253
1013,  235,  252,  254,  234
1014,  252,  253,  255,  254
1015,  253,   34,   35,  255
1016,  234,  254,  233,  231
1017,  254,  255,  232,  233
1018,  255,   35,   36,  232
1019,   36,   37,  256,  232
1020,   37,   38,  257,  256
** ... 570 like lines cut
*Nset, nset=specimen, generate
   1,  670,    1
*Elset, elset=specimen, generate
   1,  590,    1
** Section: sec
*Solid Section, elset=specimen, material=jeklo
1.,
*Solid Section, elset=PHANTOM, material=PHANTOM
1.E-12,
*End Part
**  
**
** ASSEMBLY
**
*Assembly, name=Assembly
**  
*Instance, name=specimen-1, part=specimen
*End Instance
**  
*Node
      1,         -30.,           0.,           0.
*Node
      2,          30.,           0.,           0.
*Node
      3,           0.,         -30.,           0.
*Node
      4,           0.,          30.,           0.
*Nset, nset=RP-1
 1,
*Nset, nset=RP-2
 2,
*Nset, nset=RP-3
 3,
*Nset, nset=RP-4
 4,
*Nset, nset=Set-1, instance=specimen-1
   8,   9,  14,  15,  19,  23,  77,  78,  79,  80,  81,  82,  83, 121, 122, 123
 124, 125, 126, 127, 164, 165, 166, 167, 168, 169, 170, 207, 208, 209, 210, 211
 212, 213
*Elset, elset=Set-1, instance=specimen-1
  95, 100, 105, 110, 115, 116, 117, 118, 185, 190, 195, 196, 197, 198, 199, 200
 315, 320, 325, 330, 335, 336, 337, 338, 480, 485, 490, 491, 492, 493, 494, 495
*Nset, nset=Set-2, instance=specimen-1
   4,   5,  18,  20,  21,  24,  51,  52,  53,  54,  55,  56,  57, 147, 148, 149
 150, 151, 152, 153, 181, 182, 183, 184, 185, 186, 187, 224, 225, 226, 227, 228
 229, 230
*Elset, elset=Set-2, instance=specimen-1
  42,  46,  47,  48,  49,  50,  51,  52, 254, 258, 262, 266, 270, 274, 275, 276
 390, 395, 400, 405, 410, 411, 412, 413, 555, 560, 565, 566, 567, 568, 569, 570
*Nset, nset=Set-7
 1, 2
*Nset, nset=Set-8
 3, 4
*Elset, elset=_s_Surf-1_S2, internal, instance=specimen-1
 390, 395, 400, 405, 410, 555, 560, 565
*Elset, elset=_s_Surf-1_S1, internal, instance=specimen-1
 411, 412, 413, 566, 567, 568, 569, 570
*Surface, type=ELEMENT, name=s_Surf-1
_s_Surf-1_S2, S2
_s_Surf-1_S1, S1
*Elset, elset=_s_Surf-2_S2, internal, instance=specimen-1
  42,  46, 254, 258, 262, 266, 270, 274
*Elset, elset=_s_Surf-2_S1, internal, instance=specimen-1
  47,  48,  49,  50,  51,  52, 275, 276
*Surface, type=ELEMENT, name=s_Surf-2
_s_Surf-2_S2, S2
_s_Surf-2_S1, S1
*Elset, elset=_s_Surf-3_S2, internal, instance=specimen-1
  95, 100, 105, 110, 115, 480, 485, 490
*Elset, elset=_s_Surf-3_S1, internal, instance=specimen-1
 116, 117, 118, 491, 492, 493, 494, 495
*Surface, type=ELEMENT, name=s_Surf-3
_s_Surf-3_S2, S2
_s_Surf-3_S1, S1
*Elset, elset=_s_Surf-4_S2, internal, instance=specimen-1
 185, 190, 195, 315, 320, 325, 330, 335
*Elset, elset=_s_Surf-4_S1, internal, instance=specimen-1
 196, 197, 198, 199, 200, 336, 337, 338
*Surface, type=ELEMENT, name=s_Surf-4
_s_Surf-4_S2, S2
_s_Surf-4_S1, S1
** Constraint: CP-1
*Coupling, constraint name=CP-1, ref node=RP-1, surface=s_Surf-1
*Kinematic
** Constraint: CP-2
*Coupling, constraint name=CP-2, ref node=RP-2, surface=s_Surf-2
*Kinematic
** Constraint: CP-3
*Coupling, constraint name=CP-3, ref node=RP-3, surface=s_Surf-3
*Kinematic
** Constraint: CP-4
*Coupling, constraint name=CP-4, ref node=RP-4, surface=s_Surf-4
*Kinematic
*End Assembly
** 
** MATERIALS
** 
*Material, name=jeklo
*Elastic
1., 0.3
*Expansion
 0.02,
*Material, name=PHANTOM
*USER MATERIAL, CONSTANTS=1
1.0
*Depvar
1
*User Output Variables
      5,
*INITIAL CONDITIONS,TYPE=SOLUTION
specimen-1.PHANTOM, 1.0
** ----------------------------------------------------------------
** 
** STEP: loading
** 
*Step, name=loading, nlgeom=NO
*Static
1., 1., 1e-05, 1.
** 
** BOUNDARY CONDITIONS
** 
** Name: FIX-RP-X Type: Displacement/Rotation
*Boundary
Set-7, 2, 2
Set-7, 6, 6
** Name: FIX-RP-Y Type: Displacement/Rotation
*Boundary
Set-8, 1, 1
Set-8, 6, 6
** 
** PREDEFINED FIELDS
** 
** Name: temp   Type: Temperature Using Field: VF2
*Temperature
specimen1.1, -0.44800946894453647
specimen1.2, -0.38808752380233796
specimen1.3, 4.953800363085458e-17
specimen1.4, 7.498798913309288e-33
specimen1.5, -8.659560562354932e-17
specimen1.6, 0.38808752380233796
specimen1.7, 0.44800946894453636
specimen1.8, 0.7071067811865475
specimen1.9, 1.0
specimen1.10, 0.5877852522924732
specimen1.11, -0.44800946894453636
specimen1.12, -0.388087523802338
specimen1.13, -0.587785252292473
specimen1.14, -1.0
specimen1.15, -0.7071067811865475
specimen1.16, 0.3880875238023379
specimen1.17, 0.44800946894453647
specimen1.18, 8.659560562354934e-17
specimen1.19, -0.7071067811865476
specimen1.20, -0.0
** ... 650 like lines cut
** 
** OUTPUT REQUESTS
** 
*Restart, write, frequency=0
** 
** FIELD OUTPUT: F-Output-1
**
*Output, field, variable=PRESELECT
*Element Output,elset=specimen-1.PHANTOM
UVARM, COORD
** 
** HISTORY OUTPUT: H-Output-1
** 
*Output, history, variable=PRESELECT
*End Step
