*Heading
** Job name: cross-hole Model name: Model-1
** Generated by: Abaqus/CAE 6.12-2
*Preprint, echo=NO, model=NO, history=NO, contact=NO
**
** PARTS
**
*Part, name=specimen
*Node
      1,   16.1611652,   16.1611652
      2,   7.07106781,   7.07106781
      3,          10.,           0.
      4,          25.,           0.
      5,          25.,         12.5
      6,  -7.07106781,  -7.07106781
      7,  -16.1611652,  -16.1611652
      8,        -12.5,         -25.
      9,           0.,         -25.
     10,           0.,         -10.
     11,  -16.1611652,   16.1611652
     12,  -7.07106781,   7.07106781
     13,           0.,          10.
     14,           0.,          25.
     15,        -12.5,          25.
     16,   7.07106781,  -7.07106781
     17,   16.1611652,  -16.1611652
     18,          25.,        -12.5
     19,         12.5,          25.
     20,         -25.,         12.5
** ... 44 like lines cut
*Element, type=CPS4
1, 25,  1, 26, 57
2, 26,  2, 27, 57
3, 27,  3, 28, 57
4, 28,  4, 29, 57
5, 29,  5, 25, 57
 6, 30,  6, 31, 58
 7, 31,  7, 32, 58
 8, 32,  8, 33, 58
 9, 33,  9, 34, 58
10, 34, 10, 30, 58
11, 35, 11, 36, 59
12, 36, 12, 37, 59
13, 37, 13, 38, 59
14, 38, 14, 39, 59
15, 39, 15, 35, 59
16, 40, 16, 41, 60
17, 41, 17, 42, 60
18, 42, 18, 43, 60
19, 43,  4, 28, 60
20, 28,  3, 40, 60
** ... 20 like lines cut

*Element, type=CPS4, elset=PHANTOM
1001, 25,  1, 26, 57
1002, 26,  2, 27, 57
1003, 27,  3, 28, 57
1004, 28,  4, 29, 57
1005, 29,  5, 25, 57
1006, 30,  6, 31, 58
1007, 31,  7, 32, 58
1008, 32,  8, 33, 58
1009, 33,  9, 34, 58
1010, 34, 10, 30, 58
1011, 35, 11, 36, 59
1012, 36, 12, 37, 59
1013, 37, 13, 38, 59
1014, 38, 14, 39, 59
1015, 39, 15, 35, 59
1016, 40, 16, 41, 60
1017, 41, 17, 42, 60
1018, 42, 18, 43, 60
1019, 43,  4, 28, 60
1020, 28,  3, 40, 60
** ... 20 like lines cut

*Nset, nset=specimen, generate
  1,  64,   1
*Elset, elset=specimen, generate
  1,  40,   1
** Section: sec
*Solid Section, elset=specimen, material=jeklo
0.8,
*Solid Section, elset=PHANTOM, material=PHANTOM
1.E-12,
*End Part
**  
**
** ASSEMBLY
**
*Assembly, name=Assembly
**  
*Instance, name=specimen-1, part=specimen
*End Instance
**  
*Node
      1,          30.,           0.,           0.
*Node
      2,           0.,          30.,           0.
*Nset, nset=ROI, instance=specimen-1, generate
  1,  64,   1
*Elset, elset=ROI, instance=specimen-1, generate
  1,  40,   1
*Nset, nset=levo, instance=specimen-1
 20, 21, 24, 49, 56
*Elset, elset=levo, instance=specimen-1
 28, 29, 39, 40
*Nset, nset=desno, instance=specimen-1
  4,  5, 18, 29, 43
*Elset, elset=desno, instance=specimen-1
  4,  5, 18, 19
*Nset, nset=spodaj, instance=specimen-1
  8,  9, 23, 33, 53
*Elset, elset=spodaj, instance=specimen-1
  8,  9, 34, 35
*Nset, nset=zgoraj, instance=specimen-1
 14, 15, 19, 39, 46
*Elset, elset=zgoraj, instance=specimen-1
 14, 15, 23, 24
*Nset, nset=RP-desno
 1,
*Nset, nset=RP-zgoraj
 2,
*Elset, elset=_desno_S2, internal, instance=specimen-1
  4, 18
*Elset, elset=_desno_S1, internal, instance=specimen-1
  5, 19
*Surface, type=ELEMENT, name=desno
_desno_S2, S2
_desno_S1, S1
*Elset, elset=_zgoraj_S2, internal, instance=specimen-1
 14, 23
*Elset, elset=_zgoraj_S1, internal, instance=specimen-1
 15, 24
*Surface, type=ELEMENT, name=zgoraj
_zgoraj_S2, S2
_zgoraj_S1, S1
** Constraint: CP-desno
*Coupling, constraint name=CP-desno, ref node=RP-desno, surface=desno
*Kinematic
1, 1
** Constraint: CP-zgoraj
*Coupling, constraint name=CP-zgoraj, ref node=RP-zgoraj, surface=zgoraj
*Kinematic
2, 2
*End Assembly
** 
** MATERIALS
** 
*Material, name=jeklo
*Elastic
200000., 0.3
*Plastic
 100.,0.
1100.,1.
*Material, name=PHANTOM
*USER MATERIAL, CONSTANTS=1
1.0
*Depvar
1
*User Output Variables
      5,
*INITIAL CONDITIONS,TYPE=SOLUTION
specimen-1.PHANTOM, 1.0
** ----------------------------------------------------------------
** 
** STEP: loading
** 
*Step, name=loading, nlgeom=YES, inc=100000
*Static
0.1, 1., 1e-05, 0.1
**
** BOUNDARY CONDITIONS
** 
** Name: RP-desno Type: Displacement/Rotation
*Boundary
RP-desno, 1, 1, 11.
RP-desno, 2, 2
RP-desno, 6, 6
** Name: RP-zgoraj Type: Displacement/Rotation
*Boundary
RP-zgoraj, 1, 1
RP-zgoraj, 2, 2, 11.
RP-zgoraj, 6, 6
** Name: levo Type: Displacement/Rotation
*Boundary
levo, 1, 1
** Name: spodaj Type: Displacement/Rotation
*Boundary
spodaj, 2, 2
** 
** OUTPUT REQUESTS
** 
*Restart, write, frequency=0
** 
** FIELD OUTPUT: F-Output-1
** 
*Output, field
*Node Output, nset=ROI
COORD, U
*Element Output, elset=ROI, directions=YES
E, EE, ER, IE, LE, NE, PE, PEEQ, PEEQMAX, PEEQT, PEMAG, PEQC, S, SALPHA, SE, SEE
SEP, SEPE, SPE, THE, VE, VEEQ

*Element Output,elset=specimen-1.PHANTOM
UVARM, COORD
** 
** FIELD OUTPUT: F-Output-2
** 
*Node Output, nset=RP-desno
RF, U
** 
** FIELD OUTPUT: F-Output-3
** 
*Node Output, nset=RP-zgoraj
RF, U
** 
** HISTORY OUTPUT: H-Output-1
** 
*Output, history, variable=PRESELECT
*End Step

